Version 4
SHEET 1 920 680
WIRE 288 -48 64 -48
WIRE 864 -48 288 -48
WIRE 288 64 288 32
WIRE 544 64 288 64
WIRE 672 64 608 64
WIRE 288 96 288 64
WIRE 288 96 272 96
WIRE -368 128 -512 128
WIRE -176 128 -288 128
WIRE 48 128 -112 128
WIRE 64 128 64 32
WIRE 64 128 48 128
WIRE 208 128 64 128
WIRE 208 144 208 128
WIRE 864 144 864 -48
WIRE -512 176 -512 128
WIRE 48 192 48 128
WIRE 272 224 272 192
WIRE 448 224 272 224
WIRE 672 224 672 64
WIRE 272 240 272 224
WIRE 448 272 448 224
WIRE 48 432 48 272
WIRE 64 432 48 432
WIRE 144 432 64 432
WIRE 256 432 144 432
WIRE 272 432 272 320
WIRE 272 432 256 432
WIRE -512 448 -512 256
WIRE 64 448 64 432
WIRE 64 448 -512 448
WIRE 144 448 144 432
WIRE 256 464 256 432
WIRE 448 464 448 336
WIRE 448 464 256 464
WIRE 672 464 672 304
WIRE 672 464 448 464
WIRE 864 464 864 224
WIRE 864 464 672 464
FLAG 144 448 0
SYMBOL npn 208 96 R0
SYMATTR InstName Q1
SYMATTR Value BC547C
SYMBOL res 32 176 R0
SYMATTR InstName R1
SYMATTR Value 2000
SYMBOL res 256 224 R0
SYMATTR InstName R2
SYMATTR Value 68
SYMBOL res 272 -64 R0
SYMATTR InstName R3
SYMATTR Value 2200
SYMBOL res 48 -64 R0
SYMATTR InstName R4
SYMATTR Value 12000
SYMBOL cap 608 48 R90
WINDOW 0 0 32 VBottom 2
WINDOW 3 32 32 VTop 2
SYMATTR InstName C2
SYMATTR Value 22n
SYMBOL cap -112 112 R90
WINDOW 0 0 32 VBottom 2
WINDOW 3 32 32 VTop 2
SYMATTR InstName C1
SYMATTR Value 22n
SYMBOL voltage 864 128 R0
WINDOW 123 0 0 Left 0
WINDOW 39 0 0 Left 0
SYMATTR InstName V1
SYMATTR Value 5
SYMBOL voltage -512 160 R0
WINDOW 123 24 124 Left 2
WINDOW 39 0 0 Left 0
SYMATTR InstName V2
SYMATTR Value SINE(0 0.01 5000000)
SYMATTR Value2 AC 0.01
SYMBOL res -272 112 R90
WINDOW 0 0 56 VBottom 2
WINDOW 3 32 56 VTop 2
SYMATTR InstName R5
SYMATTR Value 100
SYMBOL res 656 208 R0
SYMATTR InstName R6
SYMATTR Value 100k
SYMBOL cap 432 272 R0
SYMATTR InstName C3
SYMATTR Value 220n
TEXT -546 472 Left 2 !.tran 0 0.00001 0 0.0000001
